Version 4
SHEET 1 2472 680
WIRE 816 -304 208 -304
WIRE 960 -304 816 -304
WIRE 560 -224 496 -224
WIRE 720 -224 640 -224
WIRE 816 -224 816 -304
WIRE 464 -144 416 -144
WIRE 560 -144 528 -144
WIRE 720 -144 720 -224
WIRE 720 -144 640 -144
WIRE 768 -144 720 -144
WIRE 416 -128 416 -144
WIRE 816 -80 816 -128
WIRE 1088 -80 816 -80
WIRE 816 -48 816 -80
WIRE 816 -48 416 -48
WIRE 960 -48 960 -304
WIRE 2288 -16 2288 -32
WIRE 2352 -16 2288 -16
WIRE 2416 -16 2352 -16
WIRE 2352 0 2352 -16
WIRE 1632 32 1456 32
WIRE 816 48 816 32
WIRE 960 48 960 16
WIRE 960 48 816 48
WIRE 1456 64 1456 32
WIRE 1088 80 1088 -80
WIRE 208 128 208 -304
WIRE 592 128 512 128
WIRE 768 128 672 128
WIRE 816 176 816 144
WIRE 816 192 816 176
WIRE 1088 272 1088 144
WIRE 1088 272 816 272
WIRE 816 288 816 272
FLAG 208 208 0
FLAG 512 208 0
FLAG 816 288 0
FLAG 2352 0 0
FLAG 2288 -112 Vcc
FLAG 2416 64 Vee
FLAG 1664 48 Vee
FLAG 1664 -16 Vcc
FLAG 1456 144 0
FLAG 816 176 R_sense
FLAG 1632 0 R_sense
FLAG 1696 16 PWM_out
FLAG 496 -224 PWM_out
SYMBOL voltage 208 112 R0
WINDOW 123 0 0 Left 0
WINDOW 39 0 0 Left 0
SYMATTR InstName V1
SYMATTR Value 12
SYMBOL ind 800 -64 R0
SYMATTR InstName L1
SYMATTR Value 5µ
SYMATTR SpiceLine Rser=4
SYMBOL voltage 512 112 R0
WINDOW 3 -83 132 Left 2
WINDOW 123 0 0 Left 0
WINDOW 39 0 0 Left 0
SYMATTR Value PULSE(0 15 10m 1n 1n 60m)
SYMATTR InstName V2
SYMBOL res 688 112 R90
WINDOW 0 0 56 VBottom 2
WINDOW 3 32 56 VTop 2
SYMATTR InstName R1
SYMATTR Value 100
SYMBOL res 656 -160 R90
WINDOW 0 0 56 VBottom 2
WINDOW 3 32 56 VTop 2
SYMATTR InstName R2
SYMATTR Value 1
SYMBOL nmos 768 -224 R0
SYMATTR InstName M1
SYMATTR Value BSB012N03LX3
SYMBOL nmos 768 48 R0
SYMATTR InstName M2
SYMATTR Value BSB012N03LX3
SYMBOL schottky 1104 144 R180
WINDOW 0 24 64 Left 2
WINDOW 3 24 0 Left 2
SYMATTR InstName D2
SYMATTR Value RB088T-40
SYMATTR Description Diode
SYMATTR Type diode
SYMBOL schottky 976 16 R180
WINDOW 0 24 64 Left 2
WINDOW 3 24 0 Left 2
SYMATTR InstName D3
SYMATTR Value RB088T-40
SYMATTR Description Diode
SYMATTR Type diode
SYMBOL res 800 176 R0
SYMATTR InstName R3
SYMATTR Value 0.1
SYMBOL OpAmps\\AD549 1664 -48 R0
SYMATTR InstName U1
SYMBOL voltage 2288 -128 R0
WINDOW 123 0 0 Left 0
WINDOW 39 0 0 Left 0
SYMATTR InstName V3
SYMATTR Value 24
SYMBOL voltage 2416 -32 R0
WINDOW 123 0 0 Left 0
WINDOW 39 0 0 Left 0
SYMATTR InstName V4
SYMATTR Value 24
SYMBOL voltage 1456 48 R0
WINDOW 3 -83 132 Left 2
SYMATTR Value PWL REPEAT FOREVER (0 0 0.5m 0.48 1m 0) ENDREPEAT
SYMATTR InstName V5
SYMBOL voltage 416 -144 R0
WINDOW 3 -83 132 Left 2
WINDOW 123 0 0 Left 0
WINDOW 39 0 0 Left 0
SYMATTR Value PULSE(0 15 10m 1n 1n 20m)
SYMATTR InstName V6
SYMBOL res 656 -240 R90
WINDOW 0 0 56 VBottom 2
WINDOW 3 32 56 VTop 2
SYMATTR InstName R4
SYMATTR Value 100
SYMBOL schottky 464 -128 R270
WINDOW 0 32 32 VTop 2
WINDOW 3 0 32 VBottom 2
SYMATTR InstName D1
SYMATTR Value MBR0520L
SYMATTR Description Diode
SYMATTR Type diode
TEXT 176 232 Left 2 !.tran 0 100m 0
TEXT 1296 -248 Left 2 ;Aktueller Zustand: verwirrung
TEXT 1328 -216 Left 2 ;Wieso is de zwei dioden ned funzen und so zeug
