Version 4
SHEET 1 2472 680
WIRE 976 -336 976 -384
WIRE 1440 -336 976 -336
WIRE 976 -304 976 -336
WIRE 1968 -304 1856 -304
WIRE 1856 -288 1856 -304
WIRE 1968 -272 1968 -304
WIRE 1440 -208 1440 -336
WIRE 1376 -160 1296 -160
WIRE 1856 -144 1856 -208
WIRE 1968 -144 1968 -208
WIRE 1968 -144 1856 -144
WIRE 1856 -128 1856 -144
WIRE 1968 -96 1968 -144
WIRE 976 -80 976 -224
WIRE 1072 -80 976 -80
WIRE 1136 -80 1072 -80
WIRE 1296 -80 1296 -160
WIRE 1296 -80 1216 -80
WIRE 1440 -80 1440 -112
WIRE 1616 -80 1440 -80
WIRE 1744 -80 1696 -80
WIRE 1440 -64 1440 -80
WIRE 1744 -48 1744 -80
WIRE 1808 -48 1744 -48
WIRE 1296 -16 1296 -80
WIRE 1376 -16 1296 -16
WIRE 784 0 656 0
WIRE 1072 0 1072 -80
WIRE 1072 0 976 0
WIRE 1856 0 1856 -32
WIRE 1968 0 1968 -32
WIRE 1968 0 1856 0
WIRE 656 16 656 0
WIRE 1856 16 1856 0
WIRE 1024 64 976 64
WIRE 1440 80 1440 32
WIRE 736 96 656 96
WIRE 784 96 736 96
WIRE 1024 128 1024 64
WIRE 736 144 736 96
FLAG 368 32 0
FLAG 368 -48 24V
FLAG 528 32 0
FLAG 528 -48 12V
FLAG 1856 16 0
FLAG 1856 -384 24V
FLAG 1440 80 0
FLAG 976 -384 12V
FLAG 1024 128 0
FLAG 736 144 0
SYMBOL voltage 368 -64 R0
WINDOW 123 0 0 Left 0
WINDOW 39 0 0 Left 0
SYMATTR InstName V1
SYMATTR Value 24
SYMBOL voltage 528 -64 R0
WINDOW 123 0 0 Left 0
WINDOW 39 0 0 Left 0
SYMATTR InstName V2
SYMATTR Value 12
SYMBOL nmos 1808 -128 R0
SYMATTR InstName M1
SYMATTR Value BSZ110N06NS3
SYMBOL res 1840 -400 R0
SYMATTR InstName R1
SYMATTR Value 12
SYMBOL ind 1840 -304 R0
SYMATTR InstName L1
SYMATTR Value 5µ
SYMBOL npn 1376 -208 R0
SYMATTR InstName Q1
SYMATTR Value 2N2222
SYMBOL pnp 1376 32 M180
SYMATTR InstName Q2
SYMATTR Value 2N2907
SYMBOL res 1232 -96 R90
WINDOW 0 0 56 VBottom 2
WINDOW 3 32 56 VTop 2
SYMATTR InstName R2
SYMATTR Value 100
SYMBOL res 960 -320 R0
SYMATTR InstName R3
SYMATTR Value 100
SYMBOL Optos\\4N25 880 64 R0
SYMATTR InstName U1
SYMBOL res 1712 -96 R90
WINDOW 0 0 56 VBottom 2
WINDOW 3 32 56 VTop 2
SYMATTR InstName R4
SYMATTR Value 50
SYMBOL voltage 656 0 R0
WINDOW 123 0 0 Left 0
WINDOW 39 0 0 Left 0
SYMATTR InstName V3
SYMATTR Value PULSE(0 3 0 1n 1n 20u 40u)
SYMBOL schottky 1984 -32 R180
WINDOW 0 24 64 Left 2
WINDOW 3 24 0 Left 2
SYMATTR InstName D1
SYMATTR Value MBRS360
SYMATTR Description Diode
SYMATTR Type diode
SYMBOL schottky 1984 -208 R180
WINDOW 0 24 64 Left 2
WINDOW 3 24 0 Left 2
SYMATTR InstName D2
SYMATTR Value MBRS360
SYMATTR Description Diode
SYMATTR Type diode
TEXT 334 168 Left 2 !.tran 0 10m 0
